dss/import/capas-pablo/Formato-interfaz/urbano/Line.dss
New Line.idlinea153_idtramos_1 bus1=1 bus2=77 length=15.281 units=0 r1=0.000952086 r0=0.00109752 x1=0.00033682 x0=0.00172989 c1=0.0109851 c0=0.0035978200000000003 enabled=true phases=3
New Line.idlinea154_idtramos_2 bus1=2 bus2=3 length=5.281 units=0 r1=0.000275299 r0=0.000420731 x1=0.000297103 x0=0.00169017 c1=0.012569200000000003 c0=0.0037520900000000005 enabled=true phases=3
New Line.idlinea158_idtramos_3 bus1=123 bus2=4 length=112.788 units=0 r1=0.00048417 r0=0.000629602 x1=0.000315326 x0=0.0017084 c1=0.0117887 c0=0.00367967 enabled=true phases=3
New Line.idlinea159_idtramos_4 bus1=80 bus2=5 length=35.059 units=0 r1=0.00048417 r0=0.000629602 x1=0.000315326 x0=0.0017084 c1=0.0117887 c0=0.00367967 enabled=true phases=3
New Line.idlinea184_idtramos_5 bus1=48 bus2=51 length=16.275 units=0 r1=0.000952086 r0=0.00109752 x1=0.00033682 x0=0.00172989 c1=0.0109851 c0=0.0035978200000000003 enabled=true phases=3
New Line.idlinea185_idtramos_6 bus1=6 bus2=60 length=196.542 units=0 r1=0.000663124 r0=0.000808557 x1=0.000325502 x0=0.00171857 c1=0.011393900000000002 c0=0.0036404500000000004 enabled=true phases=3
New Line.idlinea186_idtramos_7 bus1=61 bus2=57 length=28.644 units=0 r1=0.000952086 r0=0.00109752 x1=0.00033682 x0=0.00172989 c1=0.0109851 c0=0.0035978200000000003 enabled=true phases=3
New Line.idlinea187_idtramos_8 bus1=58 bus2=7 length=17.695 units=0 r1=0.000952086 r0=0.00109752 x1=0.00033682 x0=0.00172989 c1=0.0109851 c0=0.0035978200000000003 enabled=true phases=3
New Line.idlinea188_idtramos_9 bus1=17 bus2=36 length=4.909 units=0 r1=0.000952086 r0=0.00109752 x1=0.00033682 x0=0.00172989 c1=0.0109851 c0=0.0035978200000000003 enabled=true phases=3
New Line.idlinea189_idtramos_10 bus1=18 bus2=19 length=15.029 units=0 r1=0.000952086 r0=0.00109752 x1=0.00033682 x0=0.00172989 c1=0.0109851 c0=0.0035978200000000003 enabled=true phases=3
New Line.idlinea190_idtramos_11 bus1=105 bus2=8 length=2.431 units=0 r1=0.000952086 r0=0.00109752 x1=0.00033682 x0=0.00172989 c1=0.0109851 c0=0.0035978200000000003 enabled=true phases=3
New Line.idlinea190_idtramos_12 bus1=8 bus2=27 length=12.015 units=0 r1=0.000952086 r0=0.00109752 x1=0.00033682 x0=0.00172989 c1=0.0109851 c0=0.0035978200000000003 enabled=true phases=3
New Line.idlinea191_idtramos_13 bus1=29 bus2=31 length=18.212 units=0 r1=0.000952086 r0=0.00109752 x1=0.00033682 x0=0.00172989 c1=0.0109851 c0=0.0035978200000000003 enabled=true phases=3
New Line.idlinea176_idtramos_14 bus1=95 bus2=66 length=29.435 units=0 r1=0.000952086 r0=0.00109752 x1=0.00033682 x0=0.00172989 c1=0.0109851 c0=0.0035978200000000003 enabled=true phases=3
New Line.idlinea183_idtramos_15 bus1=9 bus2=25 length=300.634 units=0 r1=0.000952086 r0=0.00109752 x1=0.00033682 x0=0.00172989 c1=0.0109851 c0=0.0035978200000000003 enabled=true phases=3
New Line.idlinea241_idtramos_16 bus1=91 bus2=85 length=7.26 units=0 r1=0.00048417 r0=0.000629602 x1=0.000315326 x0=0.0017084 c1=0.0117887 c0=0.00367967 enabled=true phases=3
New Line.idlinea245_idtramos_17 bus1=88 bus2=89 length=82.876 units=0 r1=0.00048417 r0=0.000629602 x1=0.000315326 x0=0.0017084 c1=0.0117887 c0=0.00367967 enabled=true phases=3
New Line.idlinea247_idtramos_18 bus1=93 bus2=10 length=9.551 units=0 r1=0.000952086 r0=0.00109752 x1=0.00033682 x0=0.00172989 c1=0.0109851 c0=0.0035978200000000003 enabled=true phases=3
New Line.idlinea285_idtramos_19 bus1=52 bus2=54 length=5.499 units=0 r1=0.000952086 r0=0.00109752 x1=0.00033682 x0=0.00172989 c1=0.0109851 c0=0.0035978200000000003 enabled=true phases=3
New Line.idlinea287_idtramos_20 bus1=35 bus2=11 length=107.469 units=0 r1=0.000952086 r0=0.00109752 x1=0.00033682 x0=0.00172989 c1=0.0109851 c0=0.0035978200000000003 enabled=true phases=3
New Line.idlinea288_idtramos_21 bus1=46 bus2=64 length=22.837 units=0 r1=0.000952086 r0=0.00109752 x1=0.00033682 x0=0.00172989 c1=0.0109851 c0=0.0035978200000000003 enabled=true phases=3
New Line.idlinea289_idtramos_22 bus1=45 bus2=62 length=19.521 units=0 r1=0.000952086 r0=0.00109752 x1=0.00033682 x0=0.00172989 c1=0.0109851 c0=0.0035978200000000003 enabled=true phases=3
New Line.idlinea663_idtramos_23 bus1=99 bus2=101 length=22.218 units=0 r1=0.000352234 r0=0.000497666 x1=0.000305055 x0=0.00169813 c1=0.012216100000000002 c0=0.0037201300000000003 enabled=true phases=3
New Line.idlinea664_idtramos_24 bus1=103 bus2=12 length=158.78 units=0 r1=0.000275299 r0=0.000420731 x1=0.000297103 x0=0.00169017 c1=0.012569200000000003 c0=0.0037520900000000005 enabled=true phases=3
New Line.idlinea664_idtramos_25 bus1=12 bus2=13 length=69.404 units=0 r1=0.000275299 r0=0.000420731 x1=0.000297103 x0=0.00169017 c1=0.012569200000000003 c0=0.0037520900000000005 enabled=true phases=3
New Line.idlinea665_idtramos_26 bus1=13 bus2=2 length=387.989 units=0 r1=0.000275299 r0=0.000420731 x1=0.000297103 x0=0.00169017 c1=0.012569200000000003 c0=0.0037520900000000005 enabled=true phases=3
New Line.idlinea666_idtramos_27 bus1=2 bus2=120 length=26.083 units=0 r1=0.000275299 r0=0.000420731 x1=0.000297103 x0=0.00169017 c1=0.012569200000000003 c0=0.0037520900000000005 enabled=true phases=3
New Line.idlinea667_idtramos_28 bus1=137 bus2=94 length=102.941 units=0 r1=0.000275299 r0=0.000420731 x1=0.000297103 x0=0.00169017 c1=0.012569200000000003 c0=0.0037520900000000005 enabled=true phases=3
New Line.idlinea668_idtramos_29 bus1=95 bus2=14 length=94.851 units=0 r1=0.000275299 r0=0.000420731 x1=0.000297103 x0=0.00169017 c1=0.012569200000000003 c0=0.0037520900000000005 enabled=true phases=3
New Line.idlinea669_idtramos_30 bus1=14 bus2=15 length=150.482 units=0 r1=0.000275299 r0=0.000420731 x1=0.000297103 x0=0.00169017 c1=0.012569200000000003 c0=0.0037520900000000005 enabled=true phases=3
New Line.idlinea669_idtramos_31 bus1=15 bus2=42 length=4.348 units=0 r1=0.000275299 r0=0.000420731 x1=0.000297103 x0=0.00169017 c1=0.012569200000000003 c0=0.0037520900000000005 enabled=true phases=3
New Line.idlinea670_idtramos_32 bus1=42 bus2=16 length=220.821 units=0 r1=0.000275299 r0=0.000420731 x1=0.000297103 x0=0.00169017 c1=0.012569200000000003 c0=0.0037520900000000005 enabled=true phases=3
New Line.idlinea671_idtramos_33 bus1=16 bus2=17 length=21.214 units=0 r1=0.000275299 r0=0.000420731 x1=0.000297103 x0=0.00169017 c1=0.012569200000000003 c0=0.0037520900000000005 enabled=true phases=3
New Line.idlinea672_idtramos_34 bus1=17 bus2=18 length=121.287 units=0 r1=0.000275299 r0=0.000420731 x1=0.000297103 x0=0.00169017 c1=0.012569200000000003 c0=0.0037520900000000005 enabled=true phases=3
New Line.idlinea673_idtramos_35 bus1=18 bus2=104 length=66.333 units=0 r1=0.000275299 r0=0.000420731 x1=0.000297103 x0=0.00169017 c1=0.012569200000000003 c0=0.0037520900000000005 enabled=true phases=3
New Line.idlinea674_idtramos_36 bus1=19 bus2=20 length=108.244 units=0 r1=0.000952086 r0=0.00109752 x1=0.00033682 x0=0.00172989 c1=0.0109851 c0=0.0035978200000000003 enabled=true phases=3
New Line.idlinea674_idtramos_37 bus1=20 bus2=33 length=86.812 units=0 r1=0.000952086 r0=0.00109752 x1=0.00033682 x0=0.00172989 c1=0.0109851 c0=0.0035978200000000003 enabled=true phases=3
New Line.idlinea675_idtramos_38 bus1=105 bus2=84 length=76.506 units=0 r1=0.000952086 r0=0.00109752 x1=0.00033682 x0=0.00172989 c1=0.0109851 c0=0.0035978200000000003 enabled=true phases=3
New Line.idlinea676_idtramos_39 bus1=84 bus2=21 length=10.337 units=0 r1=0.000952086 r0=0.00109752 x1=0.00033682 x0=0.00172989 c1=0.0109851 c0=0.0035978200000000003 enabled=true phases=3
New Line.idlinea676_idtramos_40 bus1=21 bus2=26 length=458.628 units=0 r1=0.000952086 r0=0.00109752 x1=0.00033682 x0=0.00172989 c1=0.0109851 c0=0.0035978200000000003 enabled=true phases=3
New Line.idlinea677_idtramos_41 bus1=26 bus2=22 length=7.948 units=0 r1=0.000952086 r0=0.00109752 x1=0.00033682 x0=0.00172989 c1=0.0109851 c0=0.0035978200000000003 enabled=true phases=3
New Line.idlinea678_idtramos_42 bus1=22 bus2=23 length=53.335 units=0 r1=0.000952086 r0=0.00109752 x1=0.00033682 x0=0.00172989 c1=0.0109851 c0=0.0035978200000000003 enabled=true phases=3
New Line.idlinea678_idtramos_43 bus1=23 bus2=24 length=5.39 units=0 r1=0.000952086 r0=0.00109752 x1=0.00033682 x0=0.00172989 c1=0.0109851 c0=0.0035978200000000003 enabled=true phases=3
New Line.idlinea679_idtramos_44 bus1=25 bus2=26 length=29.239 units=0 r1=0.000952086 r0=0.00109752 x1=0.00033682 x0=0.00172989 c1=0.0109851 c0=0.0035978200000000003 enabled=true phases=3
New Line.idlinea680_idtramos_45 bus1=27 bus2=28 length=281.24 units=0 r1=0.000952086 r0=0.00109752 x1=0.00033682 x0=0.00172989 c1=0.0109851 c0=0.0035978200000000003 enabled=true phases=3
New Line.idlinea681_idtramos_46 bus1=28 bus2=29 length=103.385 units=0 r1=0.000952086 r0=0.00109752 x1=0.00033682 x0=0.00172989 c1=0.0109851 c0=0.0035978200000000003 enabled=true phases=3
New Line.idlinea682_idtramos_47 bus1=29 bus2=30 length=272.43 units=0 r1=0.000952086 r0=0.00109752 x1=0.00033682 x0=0.00172989 c1=0.0109851 c0=0.0035978200000000003 enabled=true phases=3
New Line.idlinea683_idtramos_48 bus1=31 bus2=32 length=35.538 units=0 r1=0.000952086 r0=0.00109752 x1=0.00033682 x0=0.00172989 c1=0.0109851 c0=0.0035978200000000003 enabled=true phases=3
New Line.idlinea684_idtramos_49 bus1=33 bus2=34 length=236.711 units=0 r1=0.000952086 r0=0.00109752 x1=0.00033682 x0=0.00172989 c1=0.0109851 c0=0.0035978200000000003 enabled=true phases=3
New Line.idlinea685_idtramos_50 bus1=34 bus2=35 length=190.777 units=0 r1=0.000952086 r0=0.00109752 x1=0.00033682 x0=0.00172989 c1=0.0109851 c0=0.0035978200000000003 enabled=true phases=3
New Line.idlinea686_idtramos_51 bus1=36 bus2=37 length=8.23 units=0 r1=0.000952086 r0=0.00109752 x1=0.00033682 x0=0.00172989 c1=0.0109851 c0=0.0035978200000000003 enabled=true phases=3
New Line.idlinea687_idtramos_52 bus1=37 bus2=38 length=119.377 units=0 r1=0.000952086 r0=0.00109752 x1=0.00033682 x0=0.00172989 c1=0.0109851 c0=0.0035978200000000003 enabled=true phases=3
New Line.idlinea687_idtramos_53 bus1=38 bus2=39 length=231.027 units=0 r1=0.000952086 r0=0.00109752 x1=0.00033682 x0=0.00172989 c1=0.0109851 c0=0.0035978200000000003 enabled=true phases=3
New Line.idlinea689_idtramos_54 bus1=40 bus2=41 length=24.954 units=0 r1=0.000663124 r0=0.000808557 x1=0.000325502 x0=0.00171857 c1=0.011393900000000002 c0=0.0036404500000000004 enabled=true phases=3
New Line.idlinea689_idtramos_55 bus1=41 bus2=42 length=30.215 units=0 r1=0.000663124 r0=0.000808557 x1=0.000325502 x0=0.00171857 c1=0.011393900000000002 c0=0.0036404500000000004 enabled=true phases=3
New Line.idlinea690_idtramos_56 bus1=43 bus2=40 length=91.885 units=0 r1=0.000663124 r0=0.000808557 x1=0.000325502 x0=0.00171857 c1=0.011393900000000002 c0=0.0036404500000000004 enabled=true phases=3
New Line.idlinea692_idtramos_57 bus1=47 bus2=44 length=130.526 units=0 r1=0.000663124 r0=0.000808557 x1=0.000325502 x0=0.00171857 c1=0.011393900000000002 c0=0.0036404500000000004 enabled=true phases=3
New Line.idlinea693_idtramos_58 bus1=48 bus2=45 length=36.926 units=0 r1=0.000663124 r0=0.000808557 x1=0.000325502 x0=0.00171857 c1=0.011393900000000002 c0=0.0036404500000000004 enabled=true phases=3
New Line.idlinea693_idtramos_59 bus1=45 bus2=46 length=118.705 units=0 r1=0.000663124 r0=0.000808557 x1=0.000325502 x0=0.00171857 c1=0.011393900000000002 c0=0.0036404500000000004 enabled=true phases=3
New Line.idlinea693_idtramos_60 bus1=46 bus2=47 length=26.459 units=0 r1=0.000663124 r0=0.000808557 x1=0.000325502 x0=0.00171857 c1=0.011393900000000002 c0=0.0036404500000000004 enabled=true phases=3
New Line.idlinea694_idtramos_61 bus1=50 bus2=48 length=8.225 units=0 r1=0.000663124 r0=0.000808557 x1=0.000325502 x0=0.00171857 c1=0.011393900000000002 c0=0.0036404500000000004 enabled=true phases=3
New Line.idlinea695_idtramos_62 bus1=49 bus2=50 length=8.515 units=0 r1=0.000663124 r0=0.000808557 x1=0.000325502 x0=0.00171857 c1=0.011393900000000002 c0=0.0036404500000000004 enabled=true phases=3
New Line.idlinea696_idtramos_63 bus1=51 bus2=52 length=66.991 units=0 r1=0.000952086 r0=0.00109752 x1=0.00033682 x0=0.00172989 c1=0.0109851 c0=0.0035978200000000003 enabled=true phases=3
New Line.idlinea697_idtramos_64 bus1=52 bus2=53 length=213.742 units=0 r1=0.000952086 r0=0.00109752 x1=0.00033682 x0=0.00172989 c1=0.0109851 c0=0.0035978200000000003 enabled=true phases=3
New Line.idlinea698_idtramos_65 bus1=54 bus2=55 length=85.893 units=0 r1=0.000952086 r0=0.00109752 x1=0.00033682 x0=0.00172989 c1=0.0109851 c0=0.0035978200000000003 enabled=true phases=3
New Line.idlinea698_idtramos_66 bus1=55 bus2=56 length=24.079 units=0 r1=0.000952086 r0=0.00109752 x1=0.00033682 x0=0.00172989 c1=0.0109851 c0=0.0035978200000000003 enabled=true phases=3
New Line.idlinea699_idtramos_67 bus1=61 bus2=49 length=137.878 units=0 r1=0.000663124 r0=0.000808557 x1=0.000325502 x0=0.00171857 c1=0.011393900000000002 c0=0.0036404500000000004 enabled=true phases=3
New Line.idlinea700_idtramos_68 bus1=57 bus2=58 length=118.982 units=0 r1=0.000952086 r0=0.00109752 x1=0.00033682 x0=0.00172989 c1=0.0109851 c0=0.0035978200000000003 enabled=true phases=3
New Line.idlinea701_idtramos_69 bus1=58 bus2=59 length=178.168 units=0 r1=0.000952086 r0=0.00109752 x1=0.00033682 x0=0.00172989 c1=0.0109851 c0=0.0035978200000000003 enabled=true phases=3
New Line.idlinea702_idtramos_70 bus1=60 bus2=61 length=450.486 units=0 r1=0.000663124 r0=0.000808557 x1=0.000325502 x0=0.00171857 c1=0.011393900000000002 c0=0.0036404500000000004 enabled=true phases=3
New Line.idlinea703_idtramos_71 bus1=62 bus2=63 length=107.127 units=0 r1=0.000952086 r0=0.00109752 x1=0.00033682 x0=0.00172989 c1=0.0109851 c0=0.0035978200000000003 enabled=true phases=3
New Line.idlinea704_idtramos_72 bus1=64 bus2=65 length=101.993 units=0 r1=0.000952086 r0=0.00109752 x1=0.00033682 x0=0.00172989 c1=0.0109851 c0=0.0035978200000000003 enabled=true phases=3
New Line.idlinea705_idtramos_73 bus1=66 bus2=67 length=78.239 units=0 r1=0.000952086 r0=0.00109752 x1=0.00033682 x0=0.00172989 c1=0.0109851 c0=0.0035978200000000003 enabled=true phases=3
New Line.idlinea706_idtramos_74 bus1=68 bus2=69 length=132.711 units=0 r1=0.000952086 r0=0.00109752 x1=0.00033682 x0=0.00172989 c1=0.0109851 c0=0.0035978200000000003 enabled=true phases=3
New Line.idlinea707_idtramos_75 bus1=70 bus2=71 length=172.797 units=0 r1=0.00048417 r0=0.000629602 x1=0.000315326 x0=0.0017084 c1=0.0117887 c0=0.00367967 enabled=true phases=3
New Line.idlinea708_idtramos_76 bus1=71 bus2=72 length=158.648 units=0 r1=0.00048417 r0=0.000629602 x1=0.000315326 x0=0.0017084 c1=0.0117887 c0=0.00367967 enabled=true phases=3
New Line.idlinea708_idtramos_77 bus1=72 bus2=73 length=64.426 units=0 r1=0.00048417 r0=0.000629602 x1=0.000315326 x0=0.0017084 c1=0.0117887 c0=0.00367967 enabled=true phases=3
New Line.idlinea709_idtramos_78 bus1=74 bus2=75 length=170.636 units=0 r1=0.000952086 r0=0.00109752 x1=0.00033682 x0=0.00172989 c1=0.0109851 c0=0.0035978200000000003 enabled=true phases=3
New Line.idlinea717_idtramos_79 bus1=120 bus2=76 length=101.643 units=0 r1=0.000275299 r0=0.000420731 x1=0.000297103 x0=0.00169017 c1=0.012569200000000003 c0=0.0037520900000000005 enabled=true phases=3
New Line.idlinea731_idtramos_80 bus1=77 bus2=78 length=150.522 units=0 r1=0.000952086 r0=0.00109752 x1=0.00033682 x0=0.00172989 c1=0.0109851 c0=0.0035978200000000003 enabled=true phases=3
New Line.idlinea736_idtramos_81 bus1=79 bus2=122 length=68.153 units=0 r1=0.00048417 r0=0.000629602 x1=0.000315326 x0=0.0017084 c1=0.0117887 c0=0.00367967 enabled=true phases=3
New Line.idlinea737_idtramos_82 bus1=123 bus2=80 length=187.57 units=0 r1=0.00048417 r0=0.000629602 x1=0.000315326 x0=0.0017084 c1=0.0117887 c0=0.00367967 enabled=true phases=3
New Line.idlinea738_idtramos_83 bus1=80 bus2=81 length=299.964 units=0 r1=0.00048417 r0=0.000629602 x1=0.000315326 x0=0.0017084 c1=0.0117887 c0=0.00367967 enabled=true phases=3
New Line.idlinea734_idtramos_84 bus1=136 bus2=82 length=11.747 units=0 r1=0.00048417 r0=0.000629602 x1=0.000315326 x0=0.0017084 c1=0.0117887 c0=0.00367967 enabled=true phases=3
New Line.idlinea735_idtramos_85 bus1=82 bus2=79 length=73.747 units=0 r1=0.00048417 r0=0.000629602 x1=0.000315326 x0=0.0017084 c1=0.0117887 c0=0.00367967 enabled=true phases=3
New Line.idlinea757_idtramos_86 bus1=83 bus2=84 length=36.57 units=0 r1=0.000952086 r0=0.00109752 x1=0.00033682 x0=0.00172989 c1=0.0109851 c0=0.0035978200000000003 enabled=true phases=3
New Line.idlinea801_idtramos_87 bus1=85 bus2=86 length=13.14 units=0 r1=0.00048417 r0=0.000629602 x1=0.000315326 x0=0.0017084 c1=0.0117887 c0=0.00367967 enabled=true phases=3
New Line.idlinea802_idtramos_88 bus1=93 bus2=87 length=4.791 units=0 r1=0.000952086 r0=0.00109752 x1=0.00033682 x0=0.00172989 c1=0.0109851 c0=0.0035978200000000003 enabled=true phases=3
New Line.idlinea805_idtramos_89 bus1=87 bus2=88 length=200.145 units=0 r1=0.000952086 r0=0.00109752 x1=0.00033682 x0=0.00172989 c1=0.0109851 c0=0.0035978200000000003 enabled=true phases=3
New Line.idlinea806_idtramos_90 bus1=89 bus2=124 length=338.269 units=0 r1=0.00048417 r0=0.000629602 x1=0.000315326 x0=0.0017084 c1=0.0117887 c0=0.00367967 enabled=true phases=3
New Line.idlinea808_idtramos_91 bus1=127 bus2=90 length=32.501 units=0 r1=0.00048417 r0=0.000629602 x1=0.000315326 x0=0.0017084 c1=0.0117887 c0=0.00367967 enabled=true phases=3
New Line.idlinea889_idtramos_92 bus1=81 bus2=91 length=5.717 units=0 r1=0.000952086 r0=0.00109752 x1=0.00033682 x0=0.00172989 c1=0.0109851 c0=0.0035978200000000003 enabled=true phases=3
New Line.idlinea890_idtramos_93 bus1=91 bus2=92 length=33.353 units=0 r1=0.000952086 r0=0.00109752 x1=0.00033682 x0=0.00172989 c1=0.0109851 c0=0.0035978200000000003 enabled=true phases=3
New Line.idlinea890_idtramos_94 bus1=92 bus2=93 length=15.535 units=0 r1=0.000952086 r0=0.00109752 x1=0.00033682 x0=0.00172989 c1=0.0109851 c0=0.0035978200000000003 enabled=true phases=3
New Line.idlinea905_idtramos_95 bus1=94 bus2=95 length=121.726 units=0 r1=0.000275299 r0=0.000420731 x1=0.000297103 x0=0.00169017 c1=0.012569200000000003 c0=0.0037520900000000005 enabled=true phases=3
New Line.idlinea906_idtramos_96 bus1=120 bus2=96 length=17.683 units=0 r1=0.000952086 r0=0.00109752 x1=0.00033682 x0=0.00172989 c1=0.0109851 c0=0.0035978200000000003 enabled=true phases=3
New Line.idlinea907_idtramos_97 bus1=96 bus2=97 length=69.917 units=0 r1=0.000952086 r0=0.00109752 x1=0.00033682 x0=0.00172989 c1=0.0109851 c0=0.0035978200000000003 enabled=true phases=3
New Line.idlinea940_idtramos_98 bus1=98 bus2=99 length=26.767 units=0 r1=0.000352234 r0=0.000497666 x1=0.000305055 x0=0.00169813 c1=0.012216100000000002 c0=0.0037201300000000003 enabled=true phases=3
New Line.idlinea192_idtramos_99 bus1=100 bus2=98 length=10.604 units=0 r1=0.000352234 r0=0.000497666 x1=0.000305055 x0=0.00169813 c1=0.012216100000000002 c0=0.0037201300000000003 enabled=true phases=3
New Line.idlinea193_idtramos_100 bus1=101 bus2=102 length=42.938 units=0 r1=0.000275299 r0=0.000420731 x1=0.000297103 x0=0.00169017 c1=0.012569200000000003 c0=0.0037520900000000005 enabled=true phases=3
New Line.idlinea193_idtramos_101 bus1=102 bus2=103 length=4.17 units=0 r1=0.000275299 r0=0.000420731 x1=0.000297103 x0=0.00169017 c1=0.012569200000000003 c0=0.0037520900000000005 enabled=true phases=3
New Line.idlinea194_idtramos_102 bus1=104 bus2=105 length=189.669 units=0 r1=0.000952086 r0=0.00109752 x1=0.00033682 x0=0.00172989 c1=0.0109851 c0=0.0035978200000000003 enabled=true phases=3
New Line.idlinea156_idtramos_103 bus1=76 bus2=1 length=131.217 units=0 r1=0.000952086 r0=0.00109752 x1=0.00033682 x0=0.00172989 c1=0.0109851 c0=0.0035978200000000003 enabled=true phases=3
New Line.idlinea157_idtramos_104 bus1=1 bus2=121 length=27.112 units=0 r1=0.00048417 r0=0.000629602 x1=0.000315326 x0=0.0017084 c1=0.0117887 c0=0.00367967 enabled=true phases=3
New Line.idlinea226_idtramos_105 bus1=89 bus2=118 length=15.961 units=0 r1=0.000952086 r0=0.00109752 x1=0.00033682 x0=0.00172989 c1=0.0109851 c0=0.0035978200000000003 enabled=true phases=3
New Line.idlinea892_idtramos_106 bus1=24 bus2=106 length=6.102 units=0 r1=0.000952086 r0=0.00109752 x1=0.00033682 x0=0.00172989 c1=0.0109851 c0=0.0035978200000000003 enabled=true phases=3
New Line.idlinea896_idtramos_107 bus1=3 bus2=107 length=5.345 units=0 r1=0.000275299 r0=0.000420731 x1=0.000297103 x0=0.00169017 c1=0.012569200000000003 c0=0.0037520900000000005 enabled=true phases=3
New Line.idlinea898_idtramos_108 bus1=35 bus2=108 length=13.921 units=0 r1=0.000952086 r0=0.00109752 x1=0.00033682 x0=0.00172989 c1=0.0109851 c0=0.0035978200000000003 enabled=true phases=3
New Line.idlinea904_idtramos_109 bus1=44 bus2=43 length=38.66 units=0 r1=0.000663124 r0=0.000808557 x1=0.000325502 x0=0.00171857 c1=0.011393900000000002 c0=0.0036404500000000004 enabled=true phases=3
New Line.idlinea970_idtramos_110 bus1=63 bus2=109 length=173.629 units=0 r1=0.000952086 r0=0.00109752 x1=0.00033682 x0=0.00172989 c1=0.0109851 c0=0.0035978200000000003 enabled=true phases=3
New Line.idlinea983_idtramos_111 bus1=126 bus2=110 length=14.412 units=0 r1=0.000952086 r0=0.00109752 x1=0.00033682 x0=0.00172989 c1=0.0109851 c0=0.0035978200000000003 enabled=true phases=3
New Line.idlinea975_idtramos_112 bus1=128 bus2=111 length=140.048 units=0 r1=0.00048417 r0=0.000629602 x1=0.000315326 x0=0.0017084 c1=0.0117887 c0=0.00367967 enabled=true phases=3
New Line.idlinea981_idtramos_113 bus1=90 bus2=112 length=17.127 units=0 r1=0.000952086 r0=0.00109752 x1=0.00033682 x0=0.00172989 c1=0.0109851 c0=0.0035978200000000003 enabled=true phases=3
New Line.idlinea982_idtramos_114 bus1=129 bus2=113 length=12.653 units=0 r1=0.000952086 r0=0.00109752 x1=0.00033682 x0=0.00172989 c1=0.0109851 c0=0.0035978200000000003 enabled=true phases=3
New Line.idlinea984_idtramos_115 bus1=128 bus2=133 length=23.145 units=0 r1=0.000952086 r0=0.00109752 x1=0.00033682 x0=0.00172989 c1=0.0109851 c0=0.0035978200000000003 enabled=true phases=3
New Line.idlinea985_idtramos_116 bus1=117 bus2=114 length=236.541 units=0 r1=0.000952086 r0=0.00109752 x1=0.00033682 x0=0.00172989 c1=0.0109851 c0=0.0035978200000000003 enabled=true phases=3
New Line.idlinea986_idtramos_117 bus1=114 bus2=115 length=37.272 units=0 r1=0.000952086 r0=0.00109752 x1=0.00033682 x0=0.00172989 c1=0.0109851 c0=0.0035978200000000003 enabled=true phases=3
New Line.idlinea987_idtramos_118 bus1=115 bus2=116 length=125.247 units=0 r1=0.000952086 r0=0.00109752 x1=0.00033682 x0=0.00172989 c1=0.0109851 c0=0.0035978200000000003 enabled=true phases=3
New Line.idlinea988_idtramos_119 bus1=134 bus2=117 length=213.247 units=0 r1=0.000952086 r0=0.00109752 x1=0.00033682 x0=0.00172989 c1=0.0109851 c0=0.0035978200000000003 enabled=true phases=3
New Line.idlinea989_idtramos_120 bus1=118 bus2=119 length=178.0 units=0 r1=0.000952086 r0=0.00109752 x1=0.00033682 x0=0.00172989 c1=0.0109851 c0=0.0035978200000000003 enabled=true phases=3
New Line.idlinea990_idtramos_121 bus1=120 bus2=137 length=209.002 units=0 r1=0.000275299 r0=0.000420731 x1=0.000297103 x0=0.00169017 c1=0.012569200000000003 c0=0.0037520900000000005 enabled=true phases=3
New Line.idlinea992_idtramos_122 bus1=121 bus2=135 length=82.172 units=0 r1=0.00048417 r0=0.000629602 x1=0.000315326 x0=0.0017084 c1=0.0117887 c0=0.00367967 enabled=true phases=3
New Line.idlinea993_idtramos_123 bus1=122 bus2=123 length=22.776 units=0 r1=0.00048417 r0=0.000629602 x1=0.000315326 x0=0.0017084 c1=0.0117887 c0=0.00367967 enabled=true phases=3
New Line.idlinea994_idtramos_124 bus1=124 bus2=125 length=33.231 units=0 r1=0.00048417 r0=0.000629602 x1=0.000315326 x0=0.0017084 c1=0.0117887 c0=0.00367967 enabled=true phases=3
New Line.idlinea994_idtramos_125 bus1=125 bus2=126 length=55.396 units=0 r1=0.00048417 r0=0.000629602 x1=0.000315326 x0=0.0017084 c1=0.0117887 c0=0.00367967 enabled=true phases=3
New Line.idlinea995_idtramos_126 bus1=127 bus2=128 length=137.898 units=0 r1=0.00048417 r0=0.000629602 x1=0.000315326 x0=0.0017084 c1=0.0117887 c0=0.00367967 enabled=true phases=3
New Line.idlinea996_idtramos_127 bus1=129 bus2=90 length=165.095 units=0 r1=0.00048417 r0=0.000629602 x1=0.000315326 x0=0.0017084 c1=0.0117887 c0=0.00367967 enabled=true phases=3
New Line.idlinea997_idtramos_128 bus1=126 bus2=129 length=80.286 units=0 r1=0.00048417 r0=0.000629602 x1=0.000315326 x0=0.0017084 c1=0.0117887 c0=0.00367967 enabled=true phases=3
New Line.idlinea1030_idtramos_129 bus1=110 bus2=130 length=187.139 units=0 r1=0.000952086 r0=0.00109752 x1=0.00033682 x0=0.00172989 c1=0.0109851 c0=0.0035978200000000003 enabled=true phases=3
New Line.idlinea1031_idtramos_130 bus1=113 bus2=131 length=11.291 units=0 r1=0.000952086 r0=0.00109752 x1=0.00033682 x0=0.00172989 c1=0.0109851 c0=0.0035978200000000003 enabled=true phases=3
New Line.idlinea1032_idtramos_131 bus1=112 bus2=132 length=229.251 units=0 r1=0.000952086 r0=0.00109752 x1=0.00033682 x0=0.00172989 c1=0.0109851 c0=0.0035978200000000003 enabled=true phases=3
New Line.idlinea1033_idtramos_132 bus1=133 bus2=134 length=174.929 units=0 r1=0.000952086 r0=0.00109752 x1=0.00033682 x0=0.00172989 c1=0.0109851 c0=0.0035978200000000003 enabled=true phases=3
New Line.idlinea1040_idtramos_133 bus1=135 bus2=136 length=285.379 units=0 r1=0.00048417 r0=0.000629602 x1=0.000315326 x0=0.0017084 c1=0.0117887 c0=0.00367967 enabled=true phases=3
New Line.idlinea180_idtramos_134 bus1=137 bus2=70 length=27.969 units=0 r1=0.00048417 r0=0.000629602 x1=0.000315326 x0=0.0017084 c1=0.0117887 c0=0.00367967 enabled=true phases=3
New Line.idlinea181_idtramos_135 bus1=137 bus2=74 length=14.417 units=0 r1=0.000952086 r0=0.00109752 x1=0.00033682 x0=0.00172989 c1=0.0109851 c0=0.0035978200000000003 enabled=true phases=3
New Line.idlinea182_idtramos_136 bus1=95 bus2=68 length=22.295 units=0 r1=0.000952086 r0=0.00109752 x1=0.00033682 x0=0.00172989 c1=0.0109851 c0=0.0035978200000000003 enabled=true phases=3
